12
Generated for compphysutils
C 0.0 1.39 0.0
C 1.2037753112603695 0.6950000000000001 0.0
C 1.2037753112603697 -0.6949999999999996 0.0
C 4.440892098500626e-16 -1.39 0.0
C -1.2037753112603693 -0.6950000000000004 0.0
C -1.20377531126037 0.6949999999999993 0.0
H 0.0 2.48 0.0
H 2.1477430013854075 1.2400000000000002 0.0
H 2.147743001385408 -1.2399999999999993 0.0
H 8.881784197001252e-16 -2.48 0.0
H -2.147743001385407 -1.2400000000000009 0.0
H -2.1477430013854084 1.2399999999999987 0.0
